<?xml version="1.0" encoding="UTF-8"?>

<!-- generated on 2024-04-03 03:21:32.841319 by randomTrips.py v1_19_0+0000-baa66a0f364
<configuration>
    <net-file value="/Users/syman/Documents/FYP/final.net.xml"/>
    <route-file value="/Users/syman/Documents/FYP/peakfinal.rou.xml"/>
    <period value="0.5"/>
    <binomial value="5"/>
</configuration>
-->

<!-- generated on 2024-04-03 03:21:32 by Eclipse SUMO duarouter Version 1.19.0
<configuration xmlns:xsi="http://www.w3.org/2001/XMLSchema-instance" xsi:noNamespaceSchemaLocation="http://sumo.dlr.de/xsd/duarouterConfiguration.xsd">

    <input>
        <net-file value="/Users/syman/Documents/FYP/final.net.xml"/>
        <route-files value="trips.trips.xml"/>
    </input>

    <output>
        <output-file value="/Users/syman/Documents/FYP/peakfinal.rou.xml"/>
        <alternatives-output value="NUL"/>
    </output>

    <time>
        <begin value="0"/>
        <end value="3600.0"/>
    </time>

    <report>
        <no-warnings value="true"/>
        <ignore-errors value="true"/>
        <no-step-log value="true"/>
    </report>

</configuration>
-->

<routes xmlns:xsi="http://www.w3.org/2001/XMLSchema-instance" xsi:noNamespaceSchemaLocation="http://sumo.dlr.de/xsd/routes_file.xsd">
    <vehicle id="1" depart="1.00">
        <route edges="23652058#0 -23652056#0"/>
    </vehicle>
    <vehicle id="2" depart="1.00">
        <route edges="238237546#4 E0 -23652056#1 -23652056#0"/>
    </vehicle>
    <vehicle id="5" depart="1.00">
        <route edges="4017679#1"/>
    </vehicle>
    <vehicle id="7" depart="2.00">
        <route edges="-23652058#0"/>
    </vehicle>
    <vehicle id="8" depart="3.00">
        <route edges="396241008#0 23652058#0 23652056#1 E1 4017679#3 4017679#4"/>
    </vehicle>
    <vehicle id="9" depart="4.00">
        <route edges="-4935880#2 E1 23425210#0 23425210#1"/>
    </vehicle>
    <vehicle id="12" depart="5.00">
        <route edges="-4935880#2 E1 23425210#0"/>
    </vehicle>
    <vehicle id="13" depart="6.00">
        <route edges="4017679#0 4017679#1 4017679#2 -238237546#4 -238237546#3"/>
    </vehicle>
    <vehicle id="19" depart="8.00">
        <route edges="396241008#1 396241008#2 E0 4935880#2"/>
    </vehicle>
    <vehicle id="20" depart="8.00">
        <route edges="-4935880#2 E1"/>
    </vehicle>
    <vehicle id="22" depart="10.00">
        <route edges="23652058#0 23652056#1 E1"/>
    </vehicle>
    <vehicle id="23" depart="10.00">
        <route edges="4017679#0 4017679#1"/>
    </vehicle>
    <vehicle id="28" depart="13.00">
        <route edges="23652056#0 -23652058#0 396241008#1 396241008#2 E0 -23652056#1 -23652056#0"/>
    </vehicle>
    <vehicle id="29" depart="14.00">
        <route edges="-23652058#0 396241008#1 396241008#2 E0 4935880#2"/>
    </vehicle>
    <vehicle id="30" depart="14.00">
        <route edges="238237546#4 E0 -23652056#1"/>
    </vehicle>
    <vehicle id="34" depart="16.00">
        <route edges="23652056#0 23652056#1 E1"/>
    </vehicle>
    <vehicle id="36" depart="17.00">
        <route edges="-4935880#2 -23652056#1"/>
    </vehicle>
    <vehicle id="37" depart="17.00">
        <route edges="E0 4935880#2"/>
    </vehicle>
    <vehicle id="39" depart="18.00">
        <route edges="-23652058#1 -23652058#0 396241008#1 396241008#2 E0"/>
    </vehicle>
    <vehicle id="40" depart="19.00">
        <route edges="-23652058#1 -23652058#0 396241008#1 396241008#2 E0 -23652056#1 23652058#1"/>
    </vehicle>
    <vehicle id="41" depart="20.00">
        <route edges="23652058#0 23652056#1"/>
    </vehicle>
    <vehicle id="44" depart="21.00">
        <route edges="E1 4017679#3 4017679#4"/>
    </vehicle>
    <vehicle id="46" depart="23.00">
        <route edges="23652056#1 E1"/>
    </vehicle>
    <vehicle id="47" depart="23.00">
        <route edges="4017679#1 4017679#2 E0 -23652056#1 23652058#1"/>
    </vehicle>
    <vehicle id="48" depart="24.00">
        <route edges="23652056#0 23652056#1 E1"/>
    </vehicle>
    <vehicle id="52" depart="26.00">
        <route edges="-23652058#1 23652056#1 4935880#2"/>
    </vehicle>
    <vehicle id="53" depart="26.00">
        <route edges="396241008#1 396241008#2"/>
    </vehicle>
    <vehicle id="55" depart="27.00">
        <route edges="396241020 396241008#0 396241008#1 396241008#2 23425210#0 23425210#1"/>
    </vehicle>
    <vehicle id="56" depart="27.00">
        <route edges="4017679#0 4017679#1 4017679#2 E0 -23652056#1"/>
    </vehicle>
    <vehicle id="57" depart="28.00">
        <route edges="-4935880#2 E1 23425210#0"/>
    </vehicle>
    <vehicle id="60" depart="30.00">
        <route edges="-23652058#1 -23652058#0"/>
    </vehicle>
    <vehicle id="62" depart="31.00">
        <route edges="396241008#2 23425210#0"/>
    </vehicle>
    <vehicle id="63" depart="32.00">
        <route edges="23652058#0 23652056#1 E1 23425210#0"/>
    </vehicle>
    <vehicle id="66" depart="33.00">
        <route edges="-23652058#0 396241008#1 396241008#2 E0 4935880#2"/>
    </vehicle>
    <vehicle id="67" depart="34.00">
        <route edges="-23652058#1 -23652058#0 396241008#1 396241008#2 23425210#0 23425210#1"/>
    </vehicle>
    <vehicle id="69" depart="36.00">
        <route edges="E0 4935880#2"/>
    </vehicle>
    <vehicle id="72" depart="38.00">
        <route edges="4017679#2 E0 -23652056#1 23652058#1"/>
    </vehicle>
    <vehicle id="73" depart="38.00">
        <route edges="4017679#1 4017679#2 -238237546#4"/>
    </vehicle>
    <vehicle id="74" depart="38.00">
        <route edges="-4935880#2 E1 23425210#0 23425210#1"/>
    </vehicle>
    <vehicle id="76" depart="40.00">
        <route edges="E1 -238237546#4 -238237546#3"/>
    </vehicle>
    <vehicle id="77" depart="40.00">
        <route edges="-23652058#1 -23652058#0 396241008#1 396241008#2 E0 -23652056#1 23652058#1"/>
    </vehicle>
    <vehicle id="79" depart="41.00">
        <route edges="396241008#1 396241008#2 23425210#0"/>
    </vehicle>
    <vehicle id="81" depart="42.00">
        <route edges="-23652058#0 396241008#1 396241008#2"/>
    </vehicle>
    <vehicle id="82" depart="42.00">
        <route edges="23652056#0 23652056#1 E1 4017679#3 4017679#4"/>
    </vehicle>
    <vehicle id="85" depart="44.00">
        <route edges="396241008#0 23652058#0 -23652056#0"/>
    </vehicle>
    <vehicle id="87" depart="45.00">
        <route edges="238237546#3 238237546#4 E0 4935880#2"/>
    </vehicle>
    <vehicle id="89" depart="46.00">
        <route edges="4017679#2"/>
    </vehicle>
    <vehicle id="90" depart="46.00">
        <route edges="-4935880#2 -23652056#1 -23652056#0"/>
    </vehicle>
    <vehicle id="91" depart="46.00">
        <route edges="238237546#3 238237546#4 4017679#3 4017679#4"/>
    </vehicle>
    <vehicle id="94" depart="47.00">
        <route edges="396241008#2 E0 -23652056#1 -23652056#0"/>
    </vehicle>
    <vehicle id="95" depart="48.00">
        <route edges="23652058#0 23652056#1 E1 -238237546#4 -238237546#3"/>
    </vehicle>
    <vehicle id="98" depart="52.00">
        <route edges="-23652058#0 396241008#1 396241008#2 23425210#0 23425210#1"/>
    </vehicle>
    <vehicle id="104" depart="56.00">
        <route edges="-4935880#2 -23652056#1 23652058#1"/>
    </vehicle>
    <vehicle id="109" depart="58.00">
        <route edges="23652056#1 E1 -238237546#4"/>
    </vehicle>
    <vehicle id="111" depart="58.00">
        <route edges="-23652058#0 396241008#1 396241008#2 E0 -23652056#1 -23652056#0"/>
    </vehicle>
    <vehicle id="114" depart="60.00">
        <route edges="396241020 396241008#0"/>
    </vehicle>
    <vehicle id="115" depart="60.00">
        <route edges="396241020 396241008#0 23652058#0 23652056#1 E1 4017679#3"/>
    </vehicle>
    <vehicle id="119" depart="61.00">
        <route edges="4017679#0 4017679#1 4017679#2 E0 -23652056#1"/>
    </vehicle>
    <vehicle id="120" depart="62.00">
        <route edges="4017679#1 4017679#2 4017679#3 4017679#4"/>
    </vehicle>
    <vehicle id="121" depart="62.00">
        <route edges="E1 4017679#3"/>
    </vehicle>
    <vehicle id="122" depart="63.00">
        <route edges="23652058#0 23652056#1"/>
    </vehicle>
    <vehicle id="123" depart="63.00">
        <route edges="4017679#2 4017679#3 4017679#4"/>
    </vehicle>
    <vehicle id="126" depart="65.00">
        <route edges="4017679#2 4017679#3 4017679#4"/>
    </vehicle>
    <vehicle id="129" depart="66.00">
        <route edges="-4935880#2 E1 4017679#3"/>
    </vehicle>
    <vehicle id="134" depart="68.00">
        <route edges="396241008#1 396241008#2 E0 -23652056#1 23652058#1"/>
    </vehicle>
    <vehicle id="135" depart="69.00">
        <route edges="396241020 396241008#0 396241008#1 396241008#2 23425210#0"/>
    </vehicle>
    <vehicle id="136" depart="69.00">
        <route edges="-23652058#1 -23652058#0 396241008#1 396241008#2 -238237546#4"/>
    </vehicle>
    <vehicle id="137" depart="69.00">
        <route edges="396241008#0 23652058#0 23652056#1 E1 4017679#3"/>
    </vehicle>
    <vehicle id="139" depart="70.00">
        <route edges="-23652058#1 -23652058#0 396241008#1 396241008#2 -238237546#4"/>
    </vehicle>
    <vehicle id="143" depart="72.00">
        <route edges="-23652058#0 396241008#1 396241008#2 E0"/>
    </vehicle>
    <vehicle id="144" depart="73.00">
        <route edges="396241008#2 E0 -23652056#1"/>
    </vehicle>
    <vehicle id="145" depart="73.00">
        <route edges="396241008#0 396241008#1 396241008#2 23425210#0 23425210#1"/>
    </vehicle>
    <vehicle id="147" depart="74.00">
        <route edges="238237546#4 E0 -23652056#1 23652058#1"/>
    </vehicle>
    <vehicle id="155" depart="81.00">
        <route edges="-23652056#1 23652058#1"/>
    </vehicle>
    <vehicle id="158" depart="83.00">
        <route edges="396241008#1 396241008#2"/>
    </vehicle>
    <vehicle id="159" depart="83.00">
        <route edges="23652056#1 E1 23425210#0 23425210#1"/>
    </vehicle>
    <vehicle id="160" depart="84.00">
        <route edges="396241020 396241008#0 396241008#1 396241008#2 23425210#0 23425210#1"/>
    </vehicle>
    <vehicle id="161" depart="85.00">
        <route edges="23652056#0 23652056#1 E1"/>
    </vehicle>
    <vehicle id="163" depart="87.00">
        <route edges="396241008#0 396241008#1 396241008#2 E0"/>
    </vehicle>
    <vehicle id="169" depart="89.00">
        <route edges="396241008#0 23652058#0"/>
    </vehicle>
    <vehicle id="171" depart="91.00">
        <route edges="23652056#0 -23652058#0 396241008#1"/>
    </vehicle>
    <vehicle id="172" depart="92.00">
        <route edges="396241008#0 23652058#0 23652056#1"/>
    </vehicle>
    <vehicle id="174" depart="93.00">
        <route edges="4017679#1 4017679#2 E0 -23652056#1 -23652056#0"/>
    </vehicle>
    <vehicle id="178" depart="96.00">
        <route edges="396241020 396241008#0 396241008#1 396241008#2"/>
    </vehicle>
    <vehicle id="180" depart="98.00">
        <route edges="-23652058#0 396241008#1 396241008#2"/>
    </vehicle>
    <vehicle id="181" depart="99.00">
        <route edges="396241008#2 E0 4935880#2"/>
    </vehicle>
    <vehicle id="184" depart="100.00">
        <route edges="-23652058#0 396241008#1 396241008#2 E0 4935880#2"/>
    </vehicle>
    <vehicle id="188" depart="103.00">
        <route edges="4017679#2 -238237546#4"/>
    </vehicle>
    <vehicle id="194" depart="105.00">
        <route edges="396241008#2"/>
    </vehicle>
    <vehicle id="199" depart="109.00">
        <route edges="-23652058#1 23652056#1 E1"/>
    </vehicle>
    <vehicle id="201" depart="110.00">
        <route edges="4017679#1 4017679#2 E0 -23652056#1 -23652056#0"/>
    </vehicle>
    <vehicle id="202" depart="112.00">
        <route edges="-4935880#2 -23652056#1 -23652056#0"/>
    </vehicle>
    <vehicle id="209" depart="116.00">
        <route edges="396241020 396241008#0"/>
    </vehicle>
    <vehicle id="210" depart="116.00">
        <route edges="23652058#0 23652056#1 E1 -238237546#4 -238237546#3"/>
    </vehicle>
    <vehicle id="211" depart="117.00">
        <route edges="4017679#2 E0 -23652056#1 23652058#1"/>
    </vehicle>
    <vehicle id="213" depart="118.00">
        <route edges="396241008#0 396241008#1 396241008#2 E0 -23652056#1"/>
    </vehicle>
    <vehicle id="219" depart="119.00">
        <route edges="23652056#0 -23652058#0 396241008#1 396241008#2 -238237546#4 -238237546#3"/>
    </vehicle>
    <vehicle id="221" depart="120.00">
        <route edges="238237546#4 E0"/>
    </vehicle>
    <vehicle id="222" depart="121.00">
        <route edges="4017679#1 4017679#2 E0 4935880#2"/>
    </vehicle>
    <vehicle id="224" depart="122.00">
        <route edges="-23652058#0 396241008#1"/>
    </vehicle>
    <vehicle id="227" depart="123.00">
        <route edges="396241020 396241008#0 23652058#0 23652056#1 E1 4017679#3 4017679#4"/>
    </vehicle>
    <vehicle id="232" depart="125.00">
        <route edges="4017679#2 E0 -23652056#1"/>
    </vehicle>
    <vehicle id="233" depart="125.00">
        <route edges="4017679#0 4017679#1 4017679#2 4017679#3 4017679#4"/>
    </vehicle>
    <vehicle id="234" depart="126.00">
        <route edges="-23652058#1 23652056#1"/>
    </vehicle>
    <vehicle id="235" depart="127.00">
        <route edges="396241008#1 396241008#2 -238237546#4"/>
    </vehicle>
    <vehicle id="236" depart="128.00">
        <route edges="-23652058#1 23652056#1 E1 4017679#3 4017679#4"/>
    </vehicle>
    <vehicle id="241" depart="131.00">
        <route edges="396241008#2 E0 -23652056#1 -23652056#0"/>
    </vehicle>
    <vehicle id="242" depart="131.00">
        <route edges="23652058#0 23652056#1"/>
    </vehicle>
    <vehicle id="243" depart="131.00">
        <route edges="4017679#0 4017679#1 4017679#2 4017679#3"/>
    </vehicle>
    <vehicle id="244" depart="132.00">
        <route edges="-23652058#0 396241008#1 396241008#2 -238237546#4 -238237546#3"/>
    </vehicle>
    <vehicle id="249" depart="134.00">
        <route edges="23652056#0 -23652058#0 396241008#1 396241008#2 -238237546#4"/>
    </vehicle>
    <vehicle id="250" depart="134.00">
        <route edges="23425210#0 23425210#1"/>
    </vehicle>
    <vehicle id="251" depart="134.00">
        <route edges="4017679#0 4017679#1 4017679#2 -238237546#4 -238237546#3"/>
    </vehicle>
    <vehicle id="254" depart="135.00">
        <route edges="E0 4935880#2"/>
    </vehicle>
    <vehicle id="257" depart="138.00">
        <route edges="23652056#0 23652056#1"/>
    </vehicle>
    <vehicle id="259" depart="138.00">
        <route edges="238237546#4 E0"/>
    </vehicle>
    <vehicle id="260" depart="138.00">
        <route edges="4017679#0 4017679#1 4017679#2 4017679#3 4017679#4"/>
    </vehicle>
    <vehicle id="261" depart="139.00">
        <route edges="-238237546#4"/>
    </vehicle>
    <vehicle id="263" depart="141.00">
        <route edges="-23652058#0 396241008#1 396241008#2 E0 -23652056#1 23652058#1"/>
    </vehicle>
    <vehicle id="265" depart="142.00">
        <route edges="238237546#3 238237546#4 E0 -23652056#1"/>
    </vehicle>
    <vehicle id="266" depart="142.00">
        <route edges="4017679#3 4017679#4"/>
    </vehicle>
    <vehicle id="268" depart="145.00">
        <route edges="-23652058#1 23652056#1 4935880#2"/>
    </vehicle>
    <vehicle id="271" depart="146.00">
        <route edges="23652056#1 E1 23425210#0"/>
    </vehicle>
    <vehicle id="277" depart="148.00">
        <route edges="396241008#1 396241008#2 E0"/>
    </vehicle>
    <vehicle id="278" depart="148.00">
        <route edges="23652056#1 E1 4017679#3"/>
    </vehicle>
    <vehicle id="279" depart="150.00">
        <route edges="23652056#1 E1 -238237546#4 -238237546#3"/>
    </vehicle>
    <vehicle id="281" depart="150.00">
        <route edges="-23652058#1 -23652058#0 396241008#1 396241008#2 E0 -23652056#1"/>
    </vehicle>
    <vehicle id="282" depart="150.00">
        <route edges="4017679#1 4017679#2 4017679#3 4017679#4"/>
    </vehicle>
    <vehicle id="283" depart="151.00">
        <route edges="23652056#1 E1 4017679#3"/>
    </vehicle>
    <vehicle id="284" depart="151.00">
        <route edges="23652056#1 E1 -238237546#4 -238237546#3"/>
    </vehicle>
    <vehicle id="286" depart="152.00">
        <route edges="238237546#3 238237546#4 23425210#0"/>
    </vehicle>
    <vehicle id="287" depart="153.00">
        <route edges="4017679#1 4017679#2 E0 -23652056#1 23652058#1"/>
    </vehicle>
    <vehicle id="291" depart="155.00">
        <route edges="4017679#2 4017679#3 4017679#4"/>
    </vehicle>
    <vehicle id="293" depart="156.00">
        <route edges="238237546#3 238237546#4 E0"/>
    </vehicle>
    <vehicle id="298" depart="157.00">
        <route edges="23652056#0 23652056#1 E1 4017679#3 4017679#4"/>
    </vehicle>
    <vehicle id="299" depart="158.00">
        <route edges="396241020 396241008#0 23652058#0 23652058#1"/>
    </vehicle>
    <vehicle id="300" depart="158.00">
        <route edges="-23652058#0 396241008#1 396241008#2 23425210#0"/>
    </vehicle>
    <vehicle id="301" depart="159.00">
        <route edges="23652056#0 -23652058#0 396241008#1 396241008#2 23425210#0 23425210#1"/>
    </vehicle>
    <vehicle id="302" depart="159.00">
        <route edges="23652058#0 23652056#1 E1 4017679#3"/>
    </vehicle>
    <vehicle id="304" depart="160.00">
        <route edges="238237546#4 23425210#0"/>
    </vehicle>
    <vehicle id="312" depart="163.00">
        <route edges="4017679#1 4017679#2 E0 -23652056#1 23652058#1"/>
    </vehicle>
    <vehicle id="313" depart="164.00">
        <route edges="4017679#1 4017679#2 E0 -23652056#1 23652058#1"/>
    </vehicle>
    <vehicle id="316" depart="165.00">
        <route edges="4017679#0 4017679#1 4017679#2 -238237546#4"/>
    </vehicle>
    <vehicle id="317" depart="165.00">
        <route edges="4017679#1 4017679#2 E0 4935880#2"/>
    </vehicle>
    <vehicle id="318" depart="165.00">
        <route edges="-23652058#1 23652056#1"/>
    </vehicle>
    <vehicle id="321" depart="167.00">
        <route edges="-23652058#0 396241008#1 396241008#2"/>
    </vehicle>
    <vehicle id="324" depart="168.00">
        <route edges="E1 23425210#0"/>
    </vehicle>
    <vehicle id="330" depart="171.00">
        <route edges="396241008#2 23425210#0"/>
    </vehicle>
    <vehicle id="332" depart="172.00">
        <route edges="396241008#0 396241008#1 396241008#2 23425210#0"/>
    </vehicle>
    <vehicle id="335" depart="172.00">
        <route edges="4017679#2 E0 -23652056#1 23652058#1"/>
    </vehicle>
    <vehicle id="336" depart="173.00">
        <route edges="396241020 396241008#0 23652058#0 23652056#1 E1 4017679#3 4017679#4"/>
    </vehicle>
    <vehicle id="339" depart="175.00">
        <route edges="396241008#0 23652058#0 23652056#1"/>
    </vehicle>
    <vehicle id="340" depart="176.00">
        <route edges="23652056#0 23652056#1 E1"/>
    </vehicle>
    <vehicle id="342" depart="178.00">
        <route edges="4017679#3"/>
    </vehicle>
    <vehicle id="344" depart="178.00">
        <route edges="-23652058#1 -23652058#0 396241008#1 396241008#2 -238237546#4 -238237546#3"/>
    </vehicle>
    <vehicle id="346" depart="179.00">
        <route edges="E0 4935880#2"/>
    </vehicle>
    <vehicle id="352" depart="183.00">
        <route edges="-23652058#0 396241008#1 396241008#2 E0 -23652056#1"/>
    </vehicle>
    <vehicle id="353" depart="184.00">
        <route edges="396241008#1 396241008#2 23425210#0 23425210#1"/>
    </vehicle>
    <vehicle id="355" depart="185.00">
        <route edges="238237546#3 238237546#4 23425210#0"/>
    </vehicle>
    <vehicle id="356" depart="185.00">
        <route edges="-23652058#1 -23652058#0 396241008#1 396241008#2 23425210#0 23425210#1"/>
    </vehicle>
    <vehicle id="357" depart="186.00">
        <route edges="396241008#1 396241008#2 23425210#0"/>
    </vehicle>
    <vehicle id="358" depart="186.00">
        <route edges="23652056#0 -23652058#0 396241008#1"/>
    </vehicle>
    <vehicle id="363" depart="190.00">
        <route edges="396241008#0 396241008#1 396241008#2 E0 -23652056#1"/>
    </vehicle>
    <vehicle id="367" depart="191.00">
        <route edges="238237546#4"/>
    </vehicle>
    <vehicle id="368" depart="191.00">
        <route edges="-23652058#1 -23652058#0 396241008#1 396241008#2 23425210#0 23425210#1"/>
    </vehicle>
    <vehicle id="369" depart="192.00">
        <route edges="396241008#1 396241008#2 -238237546#4 -238237546#3"/>
    </vehicle>
    <vehicle id="370" depart="193.00">
        <route edges="23652056#1 E1 4017679#3 4017679#4"/>
    </vehicle>
    <vehicle id="373" depart="196.00">
        <route edges="396241008#2"/>
    </vehicle>
    <vehicle id="374" depart="197.00">
        <route edges="396241020 396241008#0 23652058#0 -23652056#0"/>
    </vehicle>
    <vehicle id="376" depart="197.00">
        <route edges="396241020 396241008#0 23652058#0"/>
    </vehicle>
    <vehicle id="377" depart="198.00">
        <route edges="-23652058#1 -23652058#0 396241008#1 396241008#2 -238237546#4"/>
    </vehicle>
    <vehicle id="380" depart="199.00">
        <route edges="23652056#1 E1 4017679#3"/>
    </vehicle>
    <vehicle id="382" depart="200.00">
        <route edges="E1 23425210#0 23425210#1"/>
    </vehicle>
    <vehicle id="386" depart="201.00">
        <route edges="E1 4017679#3 4017679#4"/>
    </vehicle>
    <vehicle id="388" depart="202.00">
        <route edges="238237546#3 238237546#4 23425210#0"/>
    </vehicle>
    <vehicle id="389" depart="202.00">
        <route edges="396241008#0 396241008#1 396241008#2 E0"/>
    </vehicle>
    <vehicle id="390" depart="203.00">
        <route edges="396241008#1"/>
    </vehicle>
    <vehicle id="391" depart="203.00">
        <route edges="396241020 396241008#0"/>
    </vehicle>
    <vehicle id="393" depart="203.00">
        <route edges="4017679#1 4017679#2 E0 -23652056#1 -23652056#0"/>
    </vehicle>
    <vehicle id="394" depart="205.00">
        <route edges="E1 23425210#0 23425210#1"/>
    </vehicle>
    <vehicle id="397" depart="207.00">
        <route edges="238237546#4 E0"/>
    </vehicle>
    <vehicle id="400" depart="209.00">
        <route edges="-23652058#1 -23652058#0 396241008#1 396241008#2 -238237546#4 -238237546#3"/>
    </vehicle>
    <vehicle id="402" depart="210.00">
        <route edges="4017679#2 E0 4935880#2"/>
    </vehicle>
    <vehicle id="403" depart="211.00">
        <route edges="396241020 396241008#0 396241008#1 396241008#2 -238237546#4 -238237546#3"/>
    </vehicle>
    <vehicle id="404" depart="211.00">
        <route edges="23652056#0 -23652058#0 396241008#1 396241008#2 23425210#0"/>
    </vehicle>
    <vehicle id="406" depart="212.00">
        <route edges="4017679#0 4017679#1 4017679#2 E0 -23652056#1 -23652056#0"/>
    </vehicle>
    <vehicle id="407" depart="212.00">
        <route edges="-23652058#1 -23652058#0 396241008#1 396241008#2 23425210#0 23425210#1"/>
    </vehicle>
    <vehicle id="408" depart="213.00">
        <route edges="-23652058#1 -23652058#0 396241008#1 396241008#2 E0"/>
    </vehicle>
    <vehicle id="409" depart="213.00">
        <route edges="396241008#1 396241008#2 -238237546#4"/>
    </vehicle>
    <vehicle id="413" depart="216.00">
        <route edges="396241008#0 396241008#1 396241008#2 E0 -23652056#1"/>
    </vehicle>
    <vehicle id="416" depart="217.00">
        <route edges="238237546#4 4017679#3"/>
    </vehicle>
    <vehicle id="417" depart="218.00">
        <route edges="238237546#3 238237546#4 4017679#3"/>
    </vehicle>
    <vehicle id="418" depart="218.00">
        <route edges="4017679#2"/>
    </vehicle>
    <vehicle id="420" depart="219.00">
        <route edges="E0 -23652056#1 -23652056#0"/>
    </vehicle>
    <vehicle id="422" depart="221.00">
        <route edges="396241020 396241008#0 396241008#1 396241008#2"/>
    </vehicle>
    <vehicle id="424" depart="222.00">
        <route edges="-23652056#1 -23652056#0"/>
    </vehicle>
    <vehicle id="425" depart="222.00">
        <route edges="396241020 396241008#0"/>
    </vehicle>
    <vehicle id="426" depart="223.00">
        <route edges="23652056#1 E1 23425210#0"/>
    </vehicle>
    <vehicle id="432" depart="225.00">
        <route edges="238237546#4 23425210#0 23425210#1"/>
    </vehicle>
    <vehicle id="434" depart="226.00">
        <route edges="23652056#0 -23652058#0 396241008#1 396241008#2 -238237546#4 -238237546#3"/>
    </vehicle>
    <vehicle id="435" depart="226.00">
        <route edges="23652056#0 -23652058#0 396241008#1 396241008#2 E0 -23652056#1"/>
    </vehicle>
    <vehicle id="436" depart="228.00">
        <route edges="23652058#0 23652056#1 E1 -238237546#4 -238237546#3"/>
    </vehicle>
    <vehicle id="437" depart="228.00">
        <route edges="4017679#0 4017679#1 4017679#2 E0 -23652056#1 23652058#1"/>
    </vehicle>
    <vehicle id="438" depart="229.00">
        <route edges="396241020 396241008#0 23652058#0 23652056#1 E1 4017679#3"/>
    </vehicle>
    <vehicle id="440" depart="231.00">
        <route edges="4017679#0 4017679#1 4017679#2 -238237546#4"/>
    </vehicle>
    <vehicle id="441" depart="231.00">
        <route edges="396241020 396241008#0 396241008#1"/>
    </vehicle>
    <vehicle id="442" depart="231.00">
        <route edges="4017679#0 4017679#1 4017679#2"/>
    </vehicle>
    <vehicle id="445" depart="233.00">
        <route edges="396241008#1 396241008#2 -238237546#4"/>
    </vehicle>
    <vehicle id="446" depart="234.00">
        <route edges="396241008#0 23652058#0 23652056#1"/>
    </vehicle>
    <vehicle id="447" depart="234.00">
        <route edges="238237546#4"/>
    </vehicle>
    <vehicle id="451" depart="236.00">
        <route edges="23652056#0 23652056#1"/>
    </vehicle>
    <vehicle id="453" depart="237.00">
        <route edges="4017679#1 4017679#2 -238237546#4 -238237546#3"/>
    </vehicle>
    <vehicle id="455" depart="240.00">
        <route edges="396241020 396241008#0 23652058#0 -23652056#0"/>
    </vehicle>
    <vehicle id="457" depart="241.00">
        <route edges="396241008#0 23652058#0 -23652056#0"/>
    </vehicle>
    <vehicle id="459" depart="242.00">
        <route edges="-23652058#1 -23652058#0 396241008#1 396241008#2 -238237546#4 -238237546#3"/>
    </vehicle>
    <vehicle id="460" depart="242.00">
        <route edges="396241008#0 23652058#0 23652056#1 E1 4017679#3 4017679#4"/>
    </vehicle>
    <vehicle id="461" depart="243.00">
        <route edges="23652058#0 23652056#1"/>
    </vehicle>
    <vehicle id="462" depart="243.00">
        <route edges="396241020 396241008#0 23652058#0 23652056#1 E1 4017679#3 4017679#4"/>
    </vehicle>
    <vehicle id="465" depart="246.00">
        <route edges="396241008#0 23652058#0 -23652056#0"/>
    </vehicle>
    <vehicle id="467" depart="246.00">
        <route edges="-23652058#0 396241008#1 396241008#2 E0"/>
    </vehicle>
    <vehicle id="469" depart="248.00">
        <route edges="-23652058#0 396241008#1 396241008#2 -238237546#4 -238237546#3"/>
    </vehicle>
    <vehicle id="472" depart="249.00">
        <route edges="238237546#3 238237546#4 4017679#3 4017679#4"/>
    </vehicle>
    <vehicle id="474" depart="250.00">
        <route edges="4017679#1 4017679#2 E0 -23652056#1 -23652056#0"/>
    </vehicle>
    <vehicle id="476" depart="250.00">
        <route edges="E0 -23652056#1 23652058#1"/>
    </vehicle>
    <vehicle id="479" depart="252.00">
        <route edges="-23652058#1 -23652056#0"/>
    </vehicle>
    <vehicle id="480" depart="252.00">
        <route edges="23652056#1 E1 23425210#0"/>
    </vehicle>
    <vehicle id="483" depart="253.00">
        <route edges="23652058#0 23652056#1 E1 23425210#0 23425210#1"/>
    </vehicle>
    <vehicle id="484" depart="253.00">
        <route edges="-23652058#0 396241008#1 396241008#2 E0 4935880#2"/>
    </vehicle>
    <vehicle id="486" depart="254.00">
        <route edges="238237546#4 E0 -23652056#1"/>
    </vehicle>
    <vehicle id="487" depart="255.00">
        <route edges="23425210#0"/>
    </vehicle>
    <vehicle id="488" depart="256.00">
        <route edges="-23652058#1 -23652058#0 396241008#1 396241008#2 23425210#0 23425210#1"/>
    </vehicle>
    <vehicle id="490" depart="256.00">
        <route edges="23652056#1 E1 4017679#3 4017679#4"/>
    </vehicle>
    <vehicle id="491" depart="257.00">
        <route edges="23652056#0 -23652058#0 396241008#1 396241008#2 E0"/>
    </vehicle>
    <vehicle id="492" depart="257.00">
        <route edges="23652056#0 23652056#1 E1"/>
    </vehicle>
    <vehicle id="494" depart="258.00">
        <route edges="23652056#1 E1 4017679#3 4017679#4"/>
    </vehicle>
    <vehicle id="496" depart="260.00">
        <route edges="396241020 396241008#0 23652058#0 23652056#1 E1 4017679#3 4017679#4"/>
    </vehicle>
    <vehicle id="501" depart="263.00">
        <route edges="396241008#2 E0 -23652056#1 -23652056#0"/>
    </vehicle>
    <vehicle id="508" depart="268.00">
        <route edges="23652056#0 23652056#1 E1 4017679#3 4017679#4"/>
    </vehicle>
    <vehicle id="510" depart="268.00">
        <route edges="E1 23425210#0"/>
    </vehicle>
    <vehicle id="512" depart="269.00">
        <route edges="23652058#0 23652056#1 E1 -238237546#4 -238237546#3"/>
    </vehicle>
    <vehicle id="513" depart="269.00">
        <route edges="396241008#1 396241008#2 -238237546#4"/>
    </vehicle>
    <vehicle id="514" depart="270.00">
        <route edges="396241020 396241008#0 396241008#1 396241008#2 -238237546#4"/>
    </vehicle>
    <vehicle id="515" depart="270.00">
        <route edges="-23652058#1 23652056#1 4935880#2"/>
    </vehicle>
    <vehicle id="516" depart="271.00">
        <route edges="23652056#0 23652058#1"/>
    </vehicle>
    <vehicle id="519" depart="272.00">
        <route edges="396241008#1 396241008#2 E0 -23652056#1"/>
    </vehicle>
    <vehicle id="520" depart="273.00">
        <route edges="-23652058#1 -23652058#0 396241008#1 396241008#2 23425210#0 23425210#1"/>
    </vehicle>
    <vehicle id="522" depart="273.00">